Circuit: * C:\ZHAW_C\2025\PM4\PM4\02_Hardware\03_Simulations\MF_bandpass.asc

Direct Newton iteration for .op point succeeded.

vmax: MAX(v(v_adc_in))=(58.4102dB,164.198°) FROM 100 TO 100000


Date: Wed Apr  9 14:11:34 2025
Total elapsed time: 0.158 seconds.

tnom = 27
temp = 27
method = trap
totiter = 7
traniter = 0
tranpoints = 0
accept = 0
rejected = 0
matrix size = 31
fillins = 24
solver = Normal
Avg thread counts: 12.0/0.0/12.0/10.3
Matrix Compiler1:     175 opcodes
Matrix Compiler2: 3.40 KB object code size
